pg/8_bus.m

%
function mpc = pglib_opf_case5_pjm
mpc.version = '2';
mpc.baseMVA = 100.0;


%% area data
%	area	refbus
mpc.areas = [
	1	 2;
];

%% bus data
%	bus_i	type	Pd	Qd	Gs	Bs	area	Vm	Va	baseKV	zone	Vmax	Vmin
mpc.bus = [
	1	 2	 318	 0.0	 0.0	 0.0	 1	    1.00000	    0.00000	 230.0	 1	    1.10000	    0.90000;
	2	 3	 318	 0.0	 0.0	 0.0	 1	    1.00000	    0.00000	 230.0	 1	    1.10000	    0.90000;
	3	 2	 54		 0.0	 0.0	 0.0	 1	    1.00000	    0.00000	 230.0	 1	    1.10000	    0.90000;
	4	 2	 332	 0.0	 0.0	 0.0	 1	    1.00000	    0.00000	 230.0	 1	    1.10000	    0.90000;
	5	 2	 690	 0.0	 0.0	 0.0	 1	    1.00000	    0.00000	 230.0	 1	    1.10000	    0.90000;
	6	 2	 1838	 0.0	 0.0	 0.0	 1	    1.00000	    0.00000	 230.0	 1	    1.10000	    0.90000;
	7	 2	 1964	 0.0	 0.0	 0.0	 1	    1.00000	    0.00000	 230.0	 1	    1.10000	    0.90000;
	8	 2	 1	     0.0	 0.0	 0.0	 1	    1.00000	    0.00000	 230.0	 1	    1.10000	    0.90000;
];

%% generator data
%% Q== zero because DC-OPF
%	bus	Pg	Qg	Qmax	Qmin	Vg	mBase	status	Pmax	Pmin 		
mpc.gen = [
	1	 0	 0.0	 0.0	 0.0	 1.0	 100.0	 1	 422	 0;
	2	 0	 0.0	 0.0	 0.0	 1.0	 100.0	 1	 419	 0;
	3	 0	 0.0	 0.0	 0.0	 1.0	 100.0	 1	 860	 0;
	4	 0	 0.0	 0.0	 0.0	 1.0	 100.0	 1	 325	 0;
	5	 0	 0.0	 0.0	 0.0	 1.0	 100.0	 1	 480     0;
	6	 0	 0.0	 0.0	 0.0	 1.0	 100.0	 1	 1152	 0;
	7	 0	 0.0	 0.0	 0.0	 1.0	 100.0	 1	 756	 0;
	8	 0	 0.0	 0.0	 0.0	 1.0	 100.0	 1	 500     0;

]
		

%% generator cost data
%	2	startup	shutdown	n	c(n-1)	...	c0
mpc.gencost = [
	2	 0.0	 0.0	 2	  35.0    			0.000000;
	2	 0.0	 0.0	 2	  32.0	   			0.000000;
	2	 0.0	 0.0	 2	  35.0	   			0.000000;
	2	 0.0	 0.0	 2	  35.0	   			0.000000;
	2	 0.0	 0.0	 2	  35.0	   			0.000000;
	2	 0.0	 0.0	 2	  35.0	   			0.000000;
	2	 0.0	 0.0	 2	  35.0	   			0.000000;
	2	 0.0	 0.0	 2	  35.0	   			0.000000;

];

%% branch data
%	fbus	tbus	r	x	b	rateA	rateB	rateC	ratio	angle	status	angmin	angmax
mpc.branch = [
	1	2	 0.0   0.02	 0.0	400.0	400.0	 4000	 0.0	 0.0	 1	 -30.0	 30.0;
	2	4	 0.0   0.02	 0.0	1620 	1620	 1620	 0.0	 0.0	 1	 -30.0	 30.0;
	3	4	 0.0   0.02	 0.0	220		220	 	 220	 0.0	 0.0	 1	 -30.0	 30.0;
	4	5	 0.0   0.02	 0.0	1520	1520	 1520	 0.0	 0.0	 1	 -30.0	 30.0;
	5	6	 0.0   0.02	 0.0	2550	2550	 2550	 0.0	 0.0	 1	 -30.0	 30.0;
	6 	7	 0.0   0.02	 0.0	2200	2200	 2200	 0.0	 0.0	 1	 -30.0	 30.0;
	7 	8	 0.0   0.02	 0.0	3060	3060	 3060	 0.0	 0.0	 1	 -30.0	 30.0;
];


%% generator_name
mpc.generator_name = {
	'Tidal';
	'Wind';
	'Coal';
	'Hydro';
	'Oil';
	'Nuclear';
	'Biomass';
	'Waste';
};

